Circuit: * Z:\media\kingsuk\New Volume\KINGSUK_PERSONAL\Kingsuk_LTspice\power_electronics\halfwave_uncontrolled\halfwave_uncontrolled.asc

.OP point found by inspection.

Date: Thu Sep 16 14:40:04 2021
Total elapsed time: 0.110 seconds.

tnom = 27
temp = 27
method = modified trap
totiter = 3954
traniter = 3954
tranpoints = 1619
accept = 1476
rejected = 143
matrix size = 8
fillins = 0
solver = Normal
Matrix Compiler1: 228 bytes object code size  0.1/0.1/[0.0]
Matrix Compiler2: off  [0.1]/0.1/0.1

