Circuit: * Z:\media\kingsuk\New Volume\KINGSUK_PERSONAL\KINGSUK_GITHUB\Power-Electronic-LTspice\1_1-ph_uncontrolled_rectifier\halfwave_uncontrolled\halfwave_uncontrolled.asc

.OP point found by inspection.

Date: Tue Oct 19 23:42:26 2021
Total elapsed time: 0.145 seconds.

tnom = 27
temp = 27
method = modified trap
totiter = 3954
traniter = 3954
tranpoints = 1619
accept = 1476
rejected = 143
matrix size = 8
fillins = 0
solver = Normal
Matrix Compiler1: 228 bytes object code size  0.4/0.2/[0.2]
Matrix Compiler2: 526 bytes object code size  0.3/0.4/[0.3]

